IEEE14_original_modificado.pwf
TITU
****   Sistema teste de 14 maquinas - IEEE  ****
DCTE
(Mn) ( Val) (Mn) ( Val) (Mn) ( Val) (Mn) ( Val) (Mn) ( Val) (Mn) ( Val)
BASE 100.00 DASE   6264 TEPA 0.0010 EXST 0.4000 TETP 5.0000 TBPA 5.0000
TLPP 1.0000 TEPR 0.0010 QLST 0.4000 TLPR 1.0000 TSBZ 0.0100
TSBA 5.0000 ASTP 0.0500 VSTP 5.0000 TLVC 0.1000 TLTC 0.1000 TSFR 0.0100
ZMAX 500.00 VDVM 150.00 VDVN 01.000 TUDC 0.0100 TADC 0.0100
PGER 30.000 TPST 500.00 LFIT     10 ACIT     30 LFCV      3
DCIT     10 VSIT     10 LPIT     50 LFLP     10 LCRT     32
ICIT   9000 ICMN 0.010 
CPAR   20 
99999
(
(=======================================================================
( DADOS DE BARRAS CA
(=======================================================================
DBAR
(Num)OETGb(   nome   )Gl( V)( A)( Pg)( Qg)( Qn)( Qm)(Bc  )( Pl)( Ql)( Sh)Are(Vf)M(1)(2)(3)(4)(5)(6)(7)(8)(9)(10
    1  2  BARRA-1      A1060   0          -999999999         .0   .0      01
    2  1  BARRA-2      A1045    40.00     -40.0 50.0      21.70 12.7      01
    3  1  BARRA-3      A1010    0.0   0.0   0.0 40.0      94.20 19.0      01
    4  0  BARRA-4      A1000                              47.80 -3.9      01
    5  0  BARRA-5      A1000                              7.60  1.60      01
    6  1  BARRA-6      A1070    0.0   0.0 -6.0  24.0      11.20 7.50      01
    7  0  BARRA-7      A1000                               0.0  0.0       01
    8  1  BARRA-8      A1090    0.0   0.0 -6.0  10.0       0.0  0.0       01
    9  0  BARRA-9      A1000                              29.50 16.6 19.0 01
   10  0  BARRA-10     A1000                              9.00  5.80      01
   11  0  BARRA-11     A1000                              3.50  1.80      01
   12  0  BARRA-12     A1000                              6.10  1.60      01
   13  0  BARRA-13     A1000                              13.50 5.80      01
   14  0  BARRA-14     A1000                              113.137.97      01
99999
(
(=======================================================================
( DADOS DE CIRCUITOS CA
(=======================================================================
DLIN
(De )d O d(Pa )NcEP ( R% )( X% )(Mvar)(Tap)(Tmn)(Tmx)(Phs)(Bc  )(Cn)(Ce)Ns
    1         2     1.93805.917 5.2800
    1         5     5.403022.3044.9200
    2         3     4.699019.7974.3800
    2         4     5.811017.6323.7400
    2         5     5.695017.3883.4000
    3         4     6.701017.1033.4600
    4         5     1.33504.211 1.2800
   13        14     17.09334.802
    6        11     9.498019.890
    6        12     12.29125.581
    6        13     6.615013.027
    7         8           17.615
    7         9           11.001
    9        10     3.18108.4500
    9        14     12.71127.038
   10        11     8.205019.207
   12        13     22.09219.988
    4         9           55.618      0.969
    5         6           25.202      0.932
    4         7           20.912      0.978 
99999
DGLT
(G (Vmn) (Vmx) (Vmne (Vmxe
A  0.900 1.100 0.900 1.100
99999
ULOG
4
RELAT_NEW.OUT
EXLF NEWT QLIM FILE
RELA RBAR RLIN FILE
FIM